208
Jiezi output atom position
C	3.1277320067323664e-16	-5.107974003459635	0.0
C	1.2224181918015187	-4.9595455622841245	2.1380399999999997
C	2.3737938816048696	-4.522886360243284	-2.220446049250313e-16
C	3.3872132993990305	-3.823373442968106	2.1380399999999993
C	4.203780192251507	-2.901659958584624	-4.440892098500626e-16
C	4.776038660449604	-1.8113125445130116	2.1380399999999993
C	5.070731121896544	-0.6156982292075147	-8.881784197001252e-16
C	5.070731121896543	0.6156982292075182	2.1380399999999984
C	4.776038660449603	1.811312544513014	-8.881784197001252e-16
C	4.203780192251506	2.901659958584627	2.1380399999999984
C	3.3872132993990274	3.823373442968108	-1.7763568394002505e-15
C	2.3737938816048674	4.522886360243285	2.1380399999999975
C	1.2224181918015153	4.959545562284125	-1.7763568394002505e-15
C	-4.224019077588864e-15	5.107974003459635	2.1380399999999984
C	-1.2224181918015213	4.9595455622841245	-2.6645352591003757e-15
C	-2.3737938816048727	4.522886360243281	2.1380399999999984
C	-3.3872132993990323	3.8233734429681037	-1.7763568394002505e-15
C	-4.20378019225151	2.901659958584622	2.1380399999999966
C	-4.776038660449605	1.8113125445130092	-1.7763568394002505e-15
C	-5.070731121896545	0.6156982292075097	2.1380399999999966
C	-5.070731121896543	-0.6156982292075219	-3.552713678800501e-15
C	-4.776038660449602	-1.8113125445130165	2.1380399999999966
C	-4.2037801922515055	-2.901659958584628	-3.552713678800501e-15
C	-3.3872132993990283	-3.823373442968107	2.138039999999995
C	-2.373793881604864	-4.5228863602432865	-3.552713678800501e-15
C	-1.2224181918015138	-4.959545562284126	2.138039999999995
C	3.1277320067323664e-16	-5.107974003459635	4.276079999999999
C	1.2224181918015187	-4.9595455622841245	6.414119999999999
C	2.3737938816048696	-4.522886360243284	4.276079999999999
C	3.3872132993990305	-3.823373442968106	6.414119999999999
C	4.203780192251507	-2.901659958584625	4.2760799999999985
C	4.776038660449604	-1.811312544513013	6.414119999999998
C	5.070731121896543	-0.6156982292075159	4.2760799999999985
C	5.070731121896543	0.6156982292075182	6.414119999999999
C	4.776038660449603	1.811312544513014	4.276079999999998
C	4.203780192251506	2.901659958584627	6.414119999999999
C	3.387213299399029	3.8233734429681063	4.2760799999999985
C	2.3737938816048674	4.522886360243285	6.414119999999997
C	1.2224181918015153	4.959545562284125	4.2760799999999985
C	-4.224019077588864e-15	5.107974003459635	6.414119999999997
C	-1.2224181918015213	4.9595455622841245	4.276079999999997
C	-2.3737938816048727	4.522886360243281	6.414119999999997
C	-3.3872132993990323	3.8233734429681037	4.276079999999997
C	-4.20378019225151	2.901659958584622	6.414119999999995
C	-4.776038660449605	1.8113125445130092	4.276079999999997
C	-5.070731121896544	0.6156982292075143	6.414119999999995
C	-5.070731121896543	-0.6156982292075175	4.276079999999995
C	-4.776038660449602	-1.8113125445130165	6.414119999999995
C	-4.2037801922515055	-2.901659958584628	4.276079999999995
C	-3.3872132993990283	-3.823373442968107	6.414119999999997
C	-2.373793881604868	-4.522886360243285	4.276079999999995
C	-1.2224181918015182	-4.9595455622841245	6.414119999999995
C	3.1277320067323664e-16	-5.107974003459635	8.552159999999999
C	1.2224181918015178	-4.9595455622841245	10.690199999999999
C	2.3737938816048696	-4.522886360243284	8.552159999999997
C	3.3872132993990305	-3.823373442968106	10.690199999999999
C	4.203780192251507	-2.901659958584625	8.552159999999999
C	4.776038660449604	-1.811312544513013	10.690199999999997
C	5.070731121896543	-0.6156982292075159	8.552159999999999
C	5.070731121896543	0.6156982292075182	10.690199999999997
C	4.776038660449604	1.811312544513013	8.552159999999997
C	4.203780192251506	2.901659958584627	10.690199999999997
C	3.387213299399029	3.8233734429681063	8.552159999999997
C	2.3737938816048674	4.522886360243285	10.690199999999995
C	1.2224181918015178	4.9595455622841245	8.552159999999997
C	3.1277320067323664e-16	5.107974003459635	10.690199999999995
C	-1.2224181918015213	4.9595455622841245	8.552159999999995
C	-2.3737938816048727	4.522886360243281	10.690199999999995
C	-3.3872132993990323	3.8233734429681037	8.552159999999995
C	-4.20378019225151	2.901659958584622	10.690199999999997
C	-4.776038660449605	1.8113125445130092	8.552159999999995
C	-5.070731121896544	0.6156982292075143	10.690199999999995
C	-5.070731121896543	-0.6156982292075175	8.552159999999997
C	-4.776038660449602	-1.8113125445130165	10.690199999999997
C	-4.2037801922515055	-2.901659958584628	8.552159999999995
C	-3.3872132993990283	-3.823373442968107	10.690199999999995
C	-2.373793881604864	-4.5228863602432865	8.552159999999997
C	-1.2224181918015138	-4.959545562284126	10.690199999999994
C	-8.214248688922886e-16	-5.107974003459635	12.82824
C	1.2224181918015178	-4.9595455622841245	14.966279999999998
C	2.3737938816048683	-4.522886360243284	12.828239999999997
C	3.38721329939903	-3.823373442968106	14.966279999999998
C	4.203780192251507	-2.901659958584625	12.828239999999997
C	4.776038660449604	-1.811312544513013	14.966279999999996
C	5.070731121896543	-0.6156982292075159	12.828239999999997
C	5.070731121896543	0.6156982292075159	14.966279999999996
C	4.776038660449604	1.811312544513013	12.828239999999996
C	4.203780192251506	2.901659958584627	14.966279999999996
C	3.387213299399031	3.8233734429681046	12.828239999999996
C	2.3737938816048696	4.522886360243284	14.966279999999998
C	1.2224181918015178	4.9595455622841245	12.828239999999996
C	3.1277320067323664e-16	5.107974003459635	14.966279999999996
C	-1.2224181918015213	4.9595455622841245	12.828239999999997
C	-2.373793881604871	4.522886360243283	14.966279999999998
C	-3.3872132993990323	3.8233734429681037	12.828239999999996
C	-4.20378019225151	2.901659958584622	14.966279999999996
C	-4.776038660449605	1.8113125445130092	12.828239999999997
C	-5.070731121896544	0.6156982292075143	14.966279999999994
C	-5.070731121896543	-0.6156982292075175	12.828239999999996
C	-4.776038660449602	-1.8113125445130165	14.966279999999996
C	-4.2037801922515055	-2.901659958584628	12.828239999999994
C	-3.3872132993990283	-3.823373442968107	14.966279999999994
C	-2.373793881604868	-4.522886360243285	12.828239999999996
C	-1.2224181918015182	-4.9595455622841245	14.966279999999992
C	3.1277320067323664e-16	-5.107974003459635	1.42536
C	1.2224181918015187	-4.9595455622841245	3.5633999999999992
C	2.3737938816048696	-4.522886360243284	1.4253599999999997
C	3.3872132993990305	-3.823373442968106	3.5633999999999997
C	4.203780192251507	-2.901659958584624	1.4253599999999993
C	4.776038660449604	-1.811312544513013	3.563399999999999
C	5.070731121896543	-0.6156982292075159	1.4253599999999995
C	5.070731121896543	0.6156982292075159	3.563399999999999
C	4.776038660449603	1.811312544513014	1.4253599999999986
C	4.203780192251506	2.901659958584627	3.563399999999998
C	3.3872132993990274	3.823373442968108	1.4253599999999977
C	2.3737938816048674	4.522886360243285	3.563399999999998
C	1.2224181918015153	4.959545562284125	1.4253599999999969
C	-4.224019077588864e-15	5.107974003459635	3.563399999999998
C	-1.2224181918015213	4.9595455622841245	1.4253599999999977
C	-2.3737938816048727	4.522886360243281	3.563399999999996
C	-3.3872132993990323	3.8233734429681037	1.4253599999999977
C	-4.20378019225151	2.901659958584622	3.563399999999996
C	-4.776038660449605	1.8113125445130092	1.4253599999999977
C	-5.070731121896544	0.6156982292075143	3.563399999999998
C	-5.070731121896543	-0.6156982292075175	1.4253599999999977
C	-4.776038660449604	-1.8113125445130123	3.563399999999996
C	-4.203780192251507	-2.901659958584624	1.4253599999999977
C	-3.3872132993990314	-3.8233734429681046	3.563399999999996
C	-2.373793881604868	-4.522886360243285	1.425359999999996
C	-1.2224181918015182	-4.9595455622841245	3.563399999999996
C	3.1277320067323664e-16	-5.107974003459635	5.70144
C	1.2224181918015187	-4.9595455622841245	7.839479999999999
C	2.3737938816048696	-4.522886360243284	5.701439999999999
C	3.387213299399029	-3.8233734429681063	7.839479999999998
C	4.203780192251507	-2.901659958584625	5.701439999999999
C	4.776038660449604	-1.811312544513013	7.839479999999999
C	5.070731121896543	-0.6156982292075159	5.701439999999998
C	5.070731121896543	0.6156982292075182	7.839479999999999
C	4.776038660449604	1.811312544513013	5.701439999999999
C	4.203780192251506	2.901659958584627	7.839479999999997
C	3.387213299399029	3.8233734429681063	5.701439999999999
C	2.3737938816048674	4.522886360243285	7.839479999999997
C	1.2224181918015153	4.959545562284125	5.701439999999996
C	-4.224019077588864e-15	5.107974003459635	7.8394799999999965
C	-1.2224181918015213	4.9595455622841245	5.701439999999996
C	-2.3737938816048727	4.522886360243281	7.839479999999995
C	-3.3872132993990323	3.8233734429681037	5.701439999999996
C	-4.20378019225151	2.901659958584622	7.839479999999995
C	-4.776038660449605	1.8113125445130092	5.7014399999999945
C	-5.070731121896545	0.6156982292075097	7.839479999999995
C	-5.070731121896544	-0.6156982292075129	5.701439999999996
C	-4.776038660449606	-1.811312544513008	7.839479999999998
C	-4.2037801922515055	-2.901659958584628	5.701439999999996
C	-3.3872132993990283	-3.823373442968107	7.8394799999999965
C	-2.373793881604868	-4.522886360243285	5.701439999999998
C	-1.2224181918015182	-4.9595455622841245	7.839479999999998
C	-1.9556229384578135e-15	-5.107974003459635	9.977519999999998
C	1.2224181918015178	-4.9595455622841245	12.115559999999999
C	2.3737938816048696	-4.522886360243284	9.977519999999998
C	3.387213299399029	-3.8233734429681063	12.115559999999997
C	4.203780192251507	-2.901659958584625	9.977519999999998
C	4.776038660449604	-1.811312544513013	12.115559999999997
C	5.070731121896543	-0.615698229207517	9.977519999999997
C	5.070731121896543	0.6156982292075182	12.115559999999997
C	4.776038660449604	1.811312544513013	9.977519999999997
C	4.203780192251506	2.901659958584627	12.115559999999995
C	3.387213299399031	3.8233734429681046	9.977519999999998
C	2.3737938816048714	4.522886360243283	12.115559999999995
C	1.2224181918015178	4.9595455622841245	9.977519999999995
C	3.1277320067323664e-16	5.107974003459635	12.115559999999995
C	-1.2224181918015213	4.9595455622841245	9.977519999999995
C	-2.3737938816048727	4.522886360243281	12.115559999999997
C	-3.3872132993990323	3.8233734429681037	9.977519999999995
C	-4.20378019225151	2.901659958584622	12.115559999999995
C	-4.776038660449605	1.8113125445130092	9.977519999999997
C	-5.070731121896545	0.6156982292075097	12.115559999999997
C	-5.070731121896543	-0.6156982292075175	9.977519999999995
C	-4.776038660449602	-1.8113125445130165	12.115559999999995
C	-4.203780192251507	-2.901659958584624	9.977519999999998
C	-3.3872132993990314	-3.8233734429681046	12.115559999999995
C	-2.373793881604868	-4.522886360243285	9.977519999999997
C	-1.2224181918015182	-4.9595455622841245	12.115559999999997
C	-1.9556229384578135e-15	-5.107974003459635	14.253599999999999
C	1.2224181918015178	-4.9595455622841245	16.39164
C	2.3737938816048683	-4.522886360243284	14.253599999999999
C	3.3872132993990287	-3.8233734429681068	16.391639999999995
C	4.203780192251507	-2.901659958584625	14.253599999999997
C	4.776038660449603	-1.811312544513014	16.391639999999995
C	5.070731121896543	-0.615698229207517	14.253599999999995
C	5.070731121896543	0.6156982292075182	16.391639999999995
C	4.776038660449604	1.811312544513013	14.253599999999995
C	4.203780192251506	2.901659958584627	16.39164
C	3.387213299399029	3.8233734429681063	14.253599999999995
C	2.3737938816048696	4.522886360243284	16.391639999999995
C	1.2224181918015178	4.9595455622841245	14.253599999999999
C	3.1277320067323664e-16	5.107974003459635	16.39164
C	-1.222418191801517	4.959545562284125	14.253599999999995
C	-2.373793881604871	4.522886360243283	16.391639999999995
C	-3.3872132993990323	3.8233734429681037	14.253599999999997
C	-4.20378019225151	2.901659958584622	16.391639999999995
C	-4.776038660449605	1.8113125445130092	14.253599999999995
C	-5.070731121896545	0.6156982292075097	16.391639999999995
C	-5.070731121896543	-0.6156982292075175	14.253599999999993
C	-4.776038660449602	-1.8113125445130165	16.391639999999995
C	-4.2037801922515055	-2.901659958584628	14.253599999999995
C	-3.3872132993990283	-3.823373442968107	16.39163999999999
C	-2.373793881604868	-4.522886360243285	14.253599999999995
C	-1.2224181918015182	-4.9595455622841245	16.391639999999995
