32
Jiezi output atom position
C	1.9247581579891488e-16	-3.1433686175136217	0.0
C	1.20291509173882	-2.9040939288591345	2.1380399999999997
C	2.2226972652128656	-2.2226972652128643	-2.220446049250313e-16
C	2.9040939288591345	-1.2029150917388198	2.1380399999999993
C	3.1433686175136217	1.395936085619108e-15	-4.440892098500626e-16
C	2.904093928859134	1.2029150917388212	2.1380399999999993
C	2.222697265212864	2.2226972652128656	-8.881784197001252e-16
C	1.2029150917388187	2.9040939288591354	2.1380399999999984
C	-2.599396355439301e-15	3.1433686175136217	-8.881784197001252e-16
C	-1.2029150917388196	2.9040939288591345	2.1380399999999984
C	-2.222697265212867	2.222697265212863	-1.7763568394002505e-15
C	-2.904093928859135	1.2029150917388187	2.1380399999999975
C	-3.1433686175136217	-2.4069205396403863e-15	-1.7763568394002505e-15
C	-2.904093928859133	-1.2029150917388234	2.1380399999999984
C	-2.2226972652128634	-2.2226972652128665	-2.6645352591003757e-15
C	-1.2029150917388163	-2.904093928859136	2.1380399999999984
C	1.9247581579891488e-16	-3.1433686175136217	1.42536
C	1.20291509173882	-2.9040939288591345	3.5633999999999992
C	2.222697265212865	-2.2226972652128647	1.4253599999999997
C	2.9040939288591345	-1.2029150917388198	3.5633999999999997
C	3.1433686175136217	1.395936085619108e-15	1.4253599999999993
C	2.9040939288591345	1.2029150917388198	3.563399999999999
C	2.222697265212865	2.2226972652128647	1.4253599999999995
C	1.2029150917388212	2.9040939288591336	3.563399999999999
C	-2.599396355439301e-15	3.1433686175136217	1.4253599999999986
C	-1.2029150917388196	2.9040939288591345	3.563399999999998
C	-2.222697265212867	2.222697265212863	1.4253599999999977
C	-2.904093928859135	1.2029150917388187	3.563399999999998
C	-3.1433686175136217	-2.4069205396403863e-15	1.4253599999999969
C	-2.904093928859133	-1.2029150917388234	3.563399999999998
C	-2.2226972652128634	-2.2226972652128665	1.4253599999999977
C	-1.2029150917388163	-2.904093928859136	3.563399999999996
